18

C      -0.94127539      -5.26718347      -3.96828713
C      -0.33238494      -3.88895689      -3.84308606
N      -1.16865847      -2.97724681      -3.25523725
N      -0.51040403      -1.76570770      -2.89744287
C      -0.49687631      -1.56835550      -1.52557810
N       0.39218754      -0.61181473      -1.15607414
C       0.35907326      -0.02567442       0.17168965
O       0.75362497      -3.58468600      -4.28757501
S      -1.50149713      -2.38418510      -0.51048053
H      -0.26790316      -5.90833092      -4.53215794
H      -1.90174898      -5.20338615      -4.47736764
H      -1.10247419      -5.69106602      -2.97752780
H      -1.72914011      -3.25140398      -2.42926272
H       0.39417088      -1.76840521      -3.37017404
H       0.80737342      -0.05086076      -1.88509623
H      -0.16787989      -0.71881141       0.83076065
H      -0.16753334       0.93360314       0.15490937
H       1.37850078       0.12634418       0.52991953
