17

C      -3.15949327      -3.86575292       0.05080059
C      -1.90503885      -3.00170042      -0.08117712
C      -0.62815719      -3.84327295       0.02578951
C       0.62931287      -2.97271947      -0.08042531
C       1.90308216      -3.80822038       0.05065497
H      -3.19112018      -4.61909694      -0.73782948
H      -4.05227778      -3.24389872      -0.02716694
H      -3.17357396      -4.37413682       1.01637198
H      -1.90577930      -2.23902163       0.70606675
H      -1.92042079      -2.48298781      -1.04645116
H      -0.61922411      -4.59370909      -0.77263971
H      -0.62231135      -4.37535085       0.98379862
H       0.61272553      -2.21090984       0.70740609
H       0.63282656      -2.45317624      -1.04532480
H       2.78158417      -3.16643350      -0.02770312
H       1.95110047      -4.56045507      -0.73823929
H       1.92918836      -4.31640544       1.01606843
