8
C2H6 optimized with DFTB in AMS.
 C       -2.06757167233045       0.66375072746795      -0.00000000138792
 C       -0.85147163944868       1.58404265160486       0.00000000351549
 H       -0.04462242882790       1.14917873752946      -0.59171131644262
 H       -0.48998648219934       1.73769553658291       1.01781817263753
 H       -1.10843923780018       2.55493664494741      -0.42610686200459
 H       -1.80458020164903      -0.31510338176864       0.40362689617145
 H       -2.44381672090360       0.52960198623867      -1.01522329318567
 H       -2.86568486343622       1.08707061333451       0.61159640730385
