8

C      -0.75508000       0.04767000       0.00000000
C       0.75508000      -0.04767000       0.00000000
Cl      -1.23582000       1.80576000       0.00000000
Cl       1.23582000      -1.80576000       0.00000000
H      -1.19108000      -0.40292000      -0.89629000
H      -1.19108000      -0.40292000       0.89629000
H       1.19108000       0.40292000      -0.89629000
H       1.19108000       0.40292000       0.89629000
VEC1      -3.38789277      -4.92296125      -9.09004115 
VEC2       0.18128171      -9.06966093       4.91664220 
VEC3      12.75260242       0.30141736      -1.89737993 
