10

H      -1.36280000      -1.30380000      -0.89000000
H      -1.36280000      -1.30380000       0.89000000
H      -2.13360000       0.03110000      -0.00000000
C       1.30510000      -0.67720000      -0.00000000
C       0.00000000       0.07630000       0.00000000
O      -0.00000000       1.28390000       0.00000000
C      -1.30510000      -0.67720000       0.00000000
H       2.13360000       0.03110000      -0.00000000
H       1.36280000      -1.30380000       0.89000000
H       1.36280000      -1.30380000      -0.89000000

tag = solvent
