8

C      -0.02606000      -0.02000000       1.10174000
C      -0.69395000      -1.25458000       1.64934000
O      -0.14311000      -2.17693000       2.22044000
O      -2.04995000      -1.23150000       1.42753000
H      -0.21484000       0.05830000       0.02217000
H      -0.45370000       0.87546000       1.57347000
H       1.04861000      -0.07194000       1.29460000
H      -2.38213000      -2.06950000       1.81750000

tag = solvent
