18

C       1.27030063      -0.73340841       0.22984764
C       0.00000000       1.46681682       0.22984764
C      -1.27030063      -0.73340841       0.22984764
C      -1.27030063       0.73340841      -0.22984764
C       0.00000000      -1.46681682      -0.22984764
C       1.27030063       0.73340841      -0.22984764
H       2.16770453      -1.25152479      -0.14374814
H       1.32554578      -0.76530421       1.33285042
H       2.16770453       1.25152479       0.14374814
H       0.00000000       1.53060843       1.33285042
H       0.00000000       2.50304959      -0.14374814
H      -2.16770453       1.25152479       0.14374814
H      -1.32554578      -0.76530421       1.33285042
H      -2.16770453      -1.25152479      -0.14374814
H       0.00000000      -2.50304959       0.14374814
H       0.00000000      -1.53060843      -1.33285042
H       1.32554578       0.76530421      -1.33285042
H      -1.32554578       0.76530421      -1.33285042

tag = solvent
