5

C       0.00000000       0.00000000       0.59013000
Cl       1.50039000       0.00000000      -0.39721000
Cl      -1.50039000       0.00000000      -0.39721000
H       0.00000000      -0.90690000       1.19655000
H       0.00000000       0.90690000       1.19655000
VEC1      -3.38789277      -4.92296125      -9.09004115 
VEC2       0.18128171      -9.06966093       4.91664220 
VEC3      12.75260242       0.30141736      -1.89737993 
