15

O       0.00000000      -0.33930000      -0.00000000
C      -1.14720000       0.51270000      -0.00000000
C      -2.41670000      -0.34130000       0.00000000
C       1.14720000       0.51270000       0.00000000
C       2.41670000      -0.34130000      -0.00000000
H      -1.13260000       1.14180000       0.89000000
H      -1.13260000       1.14180000      -0.89000000
H      -3.29180000       0.30860000      -0.00000000
H      -2.43140000      -0.97050000      -0.89000000
H      -2.43140000      -0.97050000       0.89000000
H       1.13260000       1.14180000      -0.89000000
H       1.13260000       1.14180000       0.89000000
H       3.29180000       0.30860000       0.00000000
H       2.43140000      -0.97050000       0.89000000
H       2.43140000      -0.97050000      -0.89000000

tag = solvent
