15

O       0.00000000      -0.33930000      -0.00000000
C      -1.14720000       0.51270000      -0.00000000
C      -2.41670000      -0.34130000       0.00000000
C       1.14720000       0.51270000       0.00000000
C       2.41670000      -0.34130000      -0.00000000
H      -1.13260000       1.14180000       0.89000000
H      -1.13260000       1.14180000      -0.89000000
H      -3.29180000       0.30860000      -0.00000000
H      -2.43140000      -0.97050000      -0.89000000
H      -2.43140000      -0.97050000       0.89000000
H       1.13260000       1.14180000      -0.89000000
H       1.13260000       1.14180000       0.89000000
H       3.29180000       0.30860000       0.00000000
H       2.43140000      -0.97050000       0.89000000
H       2.43140000      -0.97050000      -0.89000000
VEC1      -3.38789277      -4.92296125      -9.09004115 
VEC2       0.18128171      -9.06966093       4.91664220 
VEC3      12.75260242       0.30141736      -1.89737993 
