6

O      -0.99471000      -0.16493000       0.00000000
C       0.22293000      -0.04352000       0.00000000
N       1.11098000      -1.07947000       0.00000000
H       2.11051000      -0.91399000       0.00000000
H       0.76453000      -2.03410000       0.00000000
H       0.73306000       0.94784000       0.00000000
VEC1      -3.38789277      -4.92296125      -9.09004115 
VEC2       0.18128171      -9.06966093       4.91664220 
VEC3      12.75260242       0.30141736      -1.89737993 
