14

O      -0.16390000      -0.33438000      -2.44446000
O      -0.16390000      -0.33438000       2.44446000
O      -1.47948000       0.26384000       0.00000000
C       0.58383000       0.01327000      -1.27786000
C      -0.16201000      -0.35658000       0.00000000
C       0.58383000       0.01327000       1.27786000
H      -1.09298000      -0.10824000      -2.23466000
H       0.81464000       1.09921000      -1.26814000
H       1.53817000      -0.53056000      -1.33283000
H      -0.38052000      -1.43477000       0.00000000
H       0.81464000       1.09921000       1.26814000
H       1.53817000      -0.53056000       1.33283000
H      -1.09298000      -0.10824000       2.23466000
H      -1.33650000       1.23327000       0.00000000

tag = solvent
