15

C      -0.72750000      -0.64730000      -0.28860000
C       0.49970000      -0.00090000       0.35730000
C       1.75130000      -0.79860000      -0.01410000
C       0.64320000       1.43680000      -0.14610000
O      -1.90810000       0.02690000       0.15140000
H      -0.64910000      -0.57240000      -1.37310000
H      -0.77950000      -1.69710000       0.00030000
H       0.38000000       0.00370000       1.44070000
H       2.62550000      -0.33810000       0.44600000
H       1.64910000      -1.82290000       0.34450000
H       1.87100000      -0.80330000      -1.09750000
H       0.76280000       1.43210000      -1.22950000
H      -0.24850000       2.00510000       0.11850000
H       1.51740000       1.89730000       0.31400000
H      -2.65610000      -0.41050000      -0.27780000

tag = solvent
