6

H       1.06383000       0.04772000       1.41482000
H      -0.65236000      -1.13195000       2.53683000
O      -0.66754000      -1.15644000       1.56374000
H      -0.01540000      -0.02643000      -0.00336000
H      -0.49223000       0.94519000       1.41443000
C       0.00946000       0.01718000       1.09182000
VEC1      -3.38789277      -4.92296125      -9.09004115 
VEC2       0.18128171      -9.06966093       4.91664220 
VEC3      12.75260242       0.30141736      -1.89737993 
