15

C      -0.01234000       1.04501000       0.00000000
C       0.01134000       3.86896000       0.00000000
C      -0.00939000       1.76641000       1.20413000
C      -0.00939000       1.76641000      -1.20413000
C       0.00353000       3.16390000      -1.20710000
C       0.00353000       3.16390000       1.20710000
C       0.00862000      -0.46620000       0.00000000
H      -0.02012000       1.22442000      -2.15296000
H       0.00361000       3.70329000      -2.15555000
H       0.01829000       4.95983000       0.00000000
H       0.00361000       3.70329000       2.15555000
H      -0.02012000       1.22442000       2.15296000
H       1.04291000      -0.84512000       0.00000000
H      -0.48872000      -0.87471000      -0.88959000
H      -0.48872000      -0.87471000       0.88959000

tag = solvent
tag = Toluene