26

C      -3.50550887       0.00000000       0.00000000
C      -2.82023479      -1.20554680       0.00000000
C      -1.42101537      -1.22864377       0.00000000
C      -0.70972000       0.00000000       0.00000000
C      -1.42101537       1.22864377       0.00000000
C      -2.82023479       1.20554680       0.00000000
C       0.70972000       0.00000000       0.00000000
C       1.42101537       1.22864377       0.00000000
C       0.67806002       2.45188239       0.00000000
C      -0.67806002       2.45188239       0.00000000
C      -0.67806002      -2.45188239       0.00000000
C       0.67806002      -2.45188239       0.00000000
C       1.42101537      -1.22864377       0.00000000
H      -4.59026394       0.00000000       0.00000000
H      -3.36889200      -2.14134679       0.00000000
H      -3.36889200       2.14134679       0.00000000
C       2.82023479      -1.20554680       0.00000000
C       2.82023479       1.20554680       0.00000000
H       1.22964565       3.38649394       0.00000000
H      -1.22964565       3.38649394       0.00000000
H      -1.22964565      -3.38649394       0.00000000
H       1.22964565      -3.38649394       0.00000000
C       3.50550887       0.00000000       0.00000000
H       3.36889200       2.14134679       0.00000000
H       3.36889200      -2.14134679       0.00000000
H       4.59026394       0.00000000       0.00000000
