9

C       0.09129500       0.80515100       0.04350700
C       0.09515500       0.40333600      -1.40305900
O      -0.20372700      -0.96036100      -1.58933600
H       0.42752300      -1.48707400      -1.06768700
H       0.87403900       0.26569700       0.60314700
H      -0.88028200       0.57646500       0.50681800
H       0.28837300       1.88278600       0.15686100
H       1.06601300       0.66463200      -1.87141800
H      -0.68276100       0.95313400      -1.95753300

