14
molecule used for testing the molecule module
C	-1.6413000321	-0.3708368770	 1.0324112968
C	-0.8585521390	 0.7332896191	 0.9877728743	
C	 0.3909978760	 0.8145002892	 0.2726796717	
N	 0.7070362281	-0.4817887557	-0.5008288618	
O	 1.3504708408	-1.3168488100	 0.0663579226	
O	 0.2153442039	-0.5795356359	-1.5931559730	
H	-2.5432890984	-0.3804728179	 1.6265510440	
H	-1.3098869429	-1.3247034572	 0.6477266284	
H	-1.1671405021	 1.6571885774	 1.4654915142	
O	 1.1532286421	 1.7315390695	 0.1975145863	
H	-3.4375244802	 0.7865099832	-0.8393838940	
C	-2.9973980128	-0.1689432793	-1.0580999426
H	-2.1538135747	-0.2091476435	-1.7229815955	
H	-3.5925374734	-1.0533538506	-0.9230930650	

TSRC = 1, 12
