7
Coordinates from ORCA-job OPT
  C   -0.89241195416564      0.36534977289524     -0.19704974847025
  C   -1.67763059318744      1.06352366783019     -0.79946114344153
  H   -2.36731958026361      1.67653170889214     -1.32818254012038
  N   1.29093849194846     -1.58284790490179      1.46950089019381
  H   1.92332865392646     -2.29363233639252      1.08573916422431
  H   1.48762559179269     -1.61661302818830      2.47571553267448
  H   -0.19873215005094     -0.25155703013492      0.33483745493956
